/*--------------------------------*- C++ -*----------------------------------*\
| =========                 |                                                 |
| \\      /  F ield         | OpenFOAM: The Open Source CFD Toolbox           |
|  \\    /   O peration     | Version:  4.1                                   |
|   \\  /    A nd           | Web:      www.OpenFOAM.org                      |
|    \\/     M anipulation  |                                                 |
\*---------------------------------------------------------------------------*/
FoamFile
{
    version     2.0;
    format      ascii;
    class       polyBoundaryMesh;
    location    "constant/polyMesh";
    object      boundary;
}
// * * * * * * * * * * * * * * * * * * * * * * * * * * * * * * * * * * * * * //

4
(
    floor
    {
        type            wall;
        inGroups        1(wall);
        nFaces          128;
        startFace       32512;
    }
    ceiling
    {
        type            wall;
        inGroups        1(wall);
        nFaces          128;
        startFace       32640;
    }
    fixedWalls
    {
        type            wall;
        inGroups        1(wall);
        nFaces          256;
        startFace       32768;
    }
    emptyWalls
    {
        type            empty;
        inGroups        1(empty);
        nFaces          32768;
        startFace       33024;
    }
)

// ************************************************************************* //
